DroneProject
*SPICE Netlist generated by Advanced Sim server on 2016-12-18 9:22:07 PM

*Schematic Netlist:


*Selected Circuit Analyses:
.TRAN 2E-8 5E-6 0 2E-8
.OP

.END
